
No compatibility mode selected!


Circuit: * /home/pavan.gutti2/desktop/pavang_cla_adder/pavang_cla_adder.cir

Reducing trtol to 1 for xspice 'A' devices
Doing analysis at TEMP = 27.000000 and TNOM = 27.000000

Warning: v8: no DC value, transient time 0 value used
Warning: v4: no DC value, transient time 0 value used
Warning: v5: no DC value, transient time 0 value used
Warning: v6: no DC value, transient time 0 value used
Warning: v7: no DC value, transient time 0 value used
Warning: v3: no DC value, transient time 0 value used
Warning: v2: no DC value, transient time 0 value used
Warning: v1: no DC value, transient time 0 value used
Warning: v0: no DC value, transient time 0 value used
=============pavan_cla_adder : New Iteration===========
Instance : 0

Inside foo before eval.....
a=0
b=0
c_in=0
sum=0
c_out=0

Inside foo after eval.....
a=0
b=0
c_in=0
sum=0
c_out=0
=============pavan_cla_adder : New Iteration===========
Instance : 0

Inside foo before eval.....
a=0
b=0
c_in=0
sum=0
c_out=0

Inside foo after eval.....
a=0
b=0
c_in=0
sum=0
c_out=0

Initial Transient Solution
--------------------------

Node                                   Voltage
----                                   -------
i0                                           0
i1                                           0
i2                                           0
i3                                           0
i7                                           0
i6                                           0
i5                                           0
i4                                           0
i8                                           0
o0                                           0
o2                                           0
o3                                           0
o4                                           0
o1                                           0
v8#branch                                    0
v4#branch                                    0
v5#branch                                    0
v6#branch                                    0
v7#branch                                    0
v3#branch                                    0
v2#branch                                    0
v1#branch                                    0
v0#branch                                    0
a1#branch_1_0                                0
a1#branch_1_1                                0
a1#branch_1_2                                0
a1#branch_1_3                                0
a1#branch_1_4                                0

=============pavan_cla_adder : New Iteration===========
Instance : 0

Inside foo before eval.....
a=0
b=0
c_in=0
sum=0
c_out=0

Inside foo after eval.....
a=15
b=15
c_in=1
sum=15
c_out=1
=============pavan_cla_adder : New Iteration===========
Instance : 0

Inside foo before eval.....
a=15
b=15
c_in=1
sum=15
c_out=1

Inside foo after eval.....
a=15
b=15
c_in=1
sum=15
c_out=1
=============pavan_cla_adder : New Iteration===========
Instance : 0

Inside foo before eval.....
a=15
b=15
c_in=1
sum=15
c_out=1

Inside foo after eval.....
a=0
b=0
c_in=0
sum=0
c_out=0
=============pavan_cla_adder : New Iteration===========
Instance : 0

Inside foo before eval.....
a=0
b=0
c_in=0
sum=0
c_out=0

Inside foo after eval.....
a=8
b=0
c_in=0
sum=8
c_out=0
=============pavan_cla_adder : New Iteration===========
Instance : 0

Inside foo before eval.....
a=8
b=0
c_in=0
sum=8
c_out=0

Inside foo after eval.....
a=8
b=0
c_in=0
sum=8
c_out=0
=============pavan_cla_adder : New Iteration===========
Instance : 0

Inside foo before eval.....
a=8
b=0
c_in=0
sum=8
c_out=0

Inside foo after eval.....
a=12
b=0
c_in=0
sum=12
c_out=0
=============pavan_cla_adder : New Iteration===========
Instance : 0

Inside foo before eval.....
a=12
b=0
c_in=0
sum=12
c_out=0

Inside foo after eval.....
a=12
b=0
c_in=0
sum=12
c_out=0
=============pavan_cla_adder : New Iteration===========
Instance : 0

Inside foo before eval.....
a=12
b=0
c_in=0
sum=12
c_out=0

Inside foo after eval.....
a=12
b=0
c_in=0
sum=12
c_out=0
=============pavan_cla_adder : New Iteration===========
Instance : 0

Inside foo before eval.....
a=12
b=0
c_in=0
sum=12
c_out=0

Inside foo after eval.....
a=4
b=0
c_in=0
sum=4
c_out=0
=============pavan_cla_adder : New Iteration===========
Instance : 0

Inside foo before eval.....
a=4
b=0
c_in=0
sum=4
c_out=0

Inside foo after eval.....
a=14
b=0
c_in=0
sum=14
c_out=0
=============pavan_cla_adder : New Iteration===========
Instance : 0

Inside foo before eval.....
a=14
b=0
c_in=0
sum=14
c_out=0

Inside foo after eval.....
a=14
b=0
c_in=0
sum=14
c_out=0
=============pavan_cla_adder : New Iteration===========
Instance : 0

Inside foo before eval.....
a=14
b=0
c_in=0
sum=14
c_out=0

Inside foo after eval.....
a=14
b=0
c_in=0
sum=14
c_out=0
=============pavan_cla_adder : New Iteration===========
Instance : 0

Inside foo before eval.....
a=14
b=0
c_in=0
sum=14
c_out=0

Inside foo after eval.....
a=10
b=0
c_in=0
sum=10
c_out=0
=============pavan_cla_adder : New Iteration===========
Instance : 0

Inside foo before eval.....
a=10
b=0
c_in=0
sum=10
c_out=0

Inside foo after eval.....
a=11
b=0
c_in=0
sum=11
c_out=0
=============pavan_cla_adder : New Iteration===========
Instance : 0

Inside foo before eval.....
a=11
b=0
c_in=0
sum=11
c_out=0

Inside foo after eval.....
a=11
b=0
c_in=0
sum=11
c_out=0
=============pavan_cla_adder : New Iteration===========
Instance : 0

Inside foo before eval.....
a=11
b=0
c_in=0
sum=11
c_out=0

Inside foo after eval.....
a=11
b=0
c_in=0
sum=11
c_out=0
=============pavan_cla_adder : New Iteration===========
Instance : 0

Inside foo before eval.....
a=11
b=0
c_in=0
sum=11
c_out=0

Inside foo after eval.....
a=1
b=0
c_in=0
sum=1
c_out=0
=============pavan_cla_adder : New Iteration===========
Instance : 0

Inside foo before eval.....
a=1
b=0
c_in=0
sum=1
c_out=0

Inside foo after eval.....
a=13
b=1
c_in=0
sum=14
c_out=0
=============pavan_cla_adder : New Iteration===========
Instance : 0

Inside foo before eval.....
a=13
b=1
c_in=0
sum=14
c_out=0

Inside foo after eval.....
a=13
b=1
c_in=0
sum=14
c_out=0
=============pavan_cla_adder : New Iteration===========
Instance : 0

Inside foo before eval.....
a=13
b=1
c_in=0
sum=14
c_out=0

Inside foo after eval.....
a=13
b=1
c_in=0
sum=14
c_out=0
=============pavan_cla_adder : New Iteration===========
Instance : 0

Inside foo before eval.....
a=13
b=1
c_in=0
sum=14
c_out=0

Inside foo after eval.....
a=12
b=1
c_in=0
sum=13
c_out=0
=============pavan_cla_adder : New Iteration===========
Instance : 0

Inside foo before eval.....
a=12
b=1
c_in=0
sum=13
c_out=0

Inside foo after eval.....
a=12
b=3
c_in=0
sum=15
c_out=0
=============pavan_cla_adder : New Iteration===========
Instance : 0

Inside foo before eval.....
a=12
b=3
c_in=0
sum=15
c_out=0

Inside foo after eval.....
a=12
b=3
c_in=0
sum=15
c_out=0
=============pavan_cla_adder : New Iteration===========
Instance : 0

Inside foo before eval.....
a=12
b=3
c_in=0
sum=15
c_out=0

Inside foo after eval.....
a=12
b=3
c_in=0
sum=15
c_out=0
=============pavan_cla_adder : New Iteration===========
Instance : 0

Inside foo before eval.....
a=12
b=3
c_in=0
sum=15
c_out=0

Inside foo after eval.....
a=0
b=2
c_in=0
sum=2
c_out=0
=============pavan_cla_adder : New Iteration===========
Instance : 0

Inside foo before eval.....
a=0
b=2
c_in=0
sum=2
c_out=0

Inside foo after eval.....
a=10
b=6
c_in=0
sum=0
c_out=1
=============pavan_cla_adder : New Iteration===========
Instance : 0

Inside foo before eval.....
a=10
b=6
c_in=0
sum=0
c_out=1

Inside foo after eval.....
a=10
b=6
c_in=0
sum=0
c_out=1
=============pavan_cla_adder : New Iteration===========
Instance : 0

Inside foo before eval.....
a=10
b=6
c_in=0
sum=0
c_out=1

Inside foo after eval.....
a=10
b=6
c_in=0
sum=0
c_out=1
=============pavan_cla_adder : New Iteration===========
Instance : 0

Inside foo before eval.....
a=10
b=6
c_in=0
sum=0
c_out=1

Inside foo after eval.....
a=10
b=4
c_in=0
sum=14
c_out=0
=============pavan_cla_adder : New Iteration===========
Instance : 0

Inside foo before eval.....
a=10
b=4
c_in=0
sum=14
c_out=0

Inside foo after eval.....
a=14
b=12
c_in=0
sum=10
c_out=1
=============pavan_cla_adder : New Iteration===========
Instance : 0

Inside foo before eval.....
a=14
b=12
c_in=0
sum=10
c_out=1

Inside foo after eval.....
a=14
b=12
c_in=0
sum=10
c_out=1
=============pavan_cla_adder : New Iteration===========
Instance : 0

Inside foo before eval.....
a=14
b=12
c_in=0
sum=10
c_out=1

Inside foo after eval.....
a=14
b=12
c_in=0
sum=10
c_out=1
=============pavan_cla_adder : New Iteration===========
Instance : 0

Inside foo before eval.....
a=14
b=12
c_in=0
sum=10
c_out=1

Inside foo after eval.....
a=4
b=8
c_in=0
sum=12
c_out=0
=============pavan_cla_adder : New Iteration===========
Instance : 0

Inside foo before eval.....
a=4
b=8
c_in=0
sum=12
c_out=0

Inside foo after eval.....
a=13
b=8
c_in=1
sum=6
c_out=1
=============pavan_cla_adder : New Iteration===========
Instance : 0

Inside foo before eval.....
a=13
b=8
c_in=1
sum=6
c_out=1

Inside foo after eval.....
a=13
b=8
c_in=1
sum=6
c_out=1
=============pavan_cla_adder : New Iteration===========
Instance : 0

Inside foo before eval.....
a=13
b=8
c_in=1
sum=6
c_out=1

Inside foo after eval.....
a=13
b=8
c_in=1
sum=6
c_out=1
=============pavan_cla_adder : New Iteration===========
Instance : 0

Inside foo before eval.....
a=13
b=8
c_in=1
sum=6
c_out=1

Inside foo after eval.....
a=9
b=0
c_in=1
sum=10
c_out=0
=============pavan_cla_adder : New Iteration===========
Instance : 0

Inside foo before eval.....
a=9
b=0
c_in=1
sum=10
c_out=0

Inside foo after eval.....
a=9
b=0
c_in=1
sum=10
c_out=0
=============pavan_cla_adder : New Iteration===========
Instance : 0

Inside foo before eval.....
a=9
b=0
c_in=1
sum=10
c_out=0

Inside foo after eval.....
a=0
b=0
c_in=0
sum=0
c_out=0
=============pavan_cla_adder : New Iteration===========
Instance : 0

Inside foo before eval.....
a=0
b=0
c_in=0
sum=0
c_out=0

Inside foo after eval.....
a=14
b=1
c_in=0
sum=15
c_out=0
=============pavan_cla_adder : New Iteration===========
Instance : 0

Inside foo before eval.....
a=14
b=1
c_in=0
sum=15
c_out=0

Inside foo after eval.....
a=14
b=1
c_in=0
sum=15
c_out=0
=============pavan_cla_adder : New Iteration===========
Instance : 0

Inside foo before eval.....
a=14
b=1
c_in=0
sum=15
c_out=0

Inside foo after eval.....
a=14
b=1
c_in=0
sum=15
c_out=0
=============pavan_cla_adder : New Iteration===========
Instance : 0

Inside foo before eval.....
a=14
b=1
c_in=0
sum=15
c_out=0

Inside foo after eval.....
a=0
b=0
c_in=0
sum=0
c_out=0
=============pavan_cla_adder : New Iteration===========
Instance : 0

Inside foo before eval.....
a=0
b=0
c_in=0
sum=0
c_out=0

Inside foo after eval.....
a=8
b=2
c_in=0
sum=10
c_out=0
=============pavan_cla_adder : New Iteration===========
Instance : 0

Inside foo before eval.....
a=8
b=2
c_in=0
sum=10
c_out=0

Inside foo after eval.....
a=8
b=2
c_in=0
sum=10
c_out=0
=============pavan_cla_adder : New Iteration===========
Instance : 0

Inside foo before eval.....
a=8
b=2
c_in=0
sum=10
c_out=0

Inside foo after eval.....
a=13
b=2
c_in=0
sum=15
c_out=0
=============pavan_cla_adder : New Iteration===========
Instance : 0

Inside foo before eval.....
a=13
b=2
c_in=0
sum=15
c_out=0

Inside foo after eval.....
a=13
b=2
c_in=0
sum=15
c_out=0
=============pavan_cla_adder : New Iteration===========
Instance : 0

Inside foo before eval.....
a=13
b=2
c_in=0
sum=15
c_out=0

Inside foo after eval.....
a=13
b=2
c_in=0
sum=15
c_out=0
=============pavan_cla_adder : New Iteration===========
Instance : 0

Inside foo before eval.....
a=13
b=2
c_in=0
sum=15
c_out=0

Inside foo after eval.....
a=5
b=0
c_in=0
sum=5
c_out=0
=============pavan_cla_adder : New Iteration===========
Instance : 0

Inside foo before eval.....
a=5
b=0
c_in=0
sum=5
c_out=0

Inside foo after eval.....
a=15
b=4
c_in=0
sum=3
c_out=1
=============pavan_cla_adder : New Iteration===========
Instance : 0

Inside foo before eval.....
a=15
b=4
c_in=0
sum=3
c_out=1

Inside foo after eval.....
a=15
b=4
c_in=0
sum=3
c_out=1
=============pavan_cla_adder : New Iteration===========
Instance : 0

Inside foo before eval.....
a=15
b=4
c_in=0
sum=3
c_out=1

Inside foo after eval.....
a=15
b=4
c_in=0
sum=3
c_out=1
=============pavan_cla_adder : New Iteration===========
Instance : 0

Inside foo before eval.....
a=15
b=4
c_in=0
sum=3
c_out=1

Inside foo after eval.....
a=10
b=4
c_in=0
sum=14
c_out=0
=============pavan_cla_adder : New Iteration===========
Instance : 0

Inside foo before eval.....
a=10
b=4
c_in=0
sum=14
c_out=0

Inside foo after eval.....
a=10
b=4
c_in=0
sum=14
c_out=0
=============pavan_cla_adder : New Iteration===========
Instance : 0

Inside foo before eval.....
a=10
b=4
c_in=0
sum=14
c_out=0

Inside foo after eval.....
a=0
b=0
c_in=0
sum=0
c_out=0
=============pavan_cla_adder : New Iteration===========
Instance : 0

Inside foo before eval.....
a=0
b=0
c_in=0
sum=0
c_out=0

Inside foo after eval.....
a=12
b=9
c_in=0
sum=5
c_out=1
=============pavan_cla_adder : New Iteration===========
Instance : 0

Inside foo before eval.....
a=12
b=9
c_in=0
sum=5
c_out=1

Inside foo after eval.....
a=12
b=9
c_in=0
sum=5
c_out=1
=============pavan_cla_adder : New Iteration===========
Instance : 0

Inside foo before eval.....
a=12
b=9
c_in=0
sum=5
c_out=1

Inside foo after eval.....
a=12
b=9
c_in=0
sum=5
c_out=1
=============pavan_cla_adder : New Iteration===========
Instance : 0

Inside foo before eval.....
a=12
b=9
c_in=0
sum=5
c_out=1

Inside foo after eval.....
a=0
b=0
c_in=0
sum=0
c_out=0

No. of Data Rows : 1280
ERROR: (internal)  This operation is not defined for display type PrinterOnly.
Can't open viewport for graphics.
binary raw file "/home/pavan.gutti2/Desktop/pavang_cla_adder/pavang_cla_adder.raw"
Reducing trtol to 1 for xspice 'A' devices
Doing analysis at TEMP = 27.000000 and TNOM = 27.000000

Warning: v8: no DC value, transient time 0 value used
Warning: v4: no DC value, transient time 0 value used
Warning: v5: no DC value, transient time 0 value used
Warning: v6: no DC value, transient time 0 value used
Warning: v7: no DC value, transient time 0 value used
Warning: v3: no DC value, transient time 0 value used
Warning: v2: no DC value, transient time 0 value used
Warning: v1: no DC value, transient time 0 value used
Warning: v0: no DC value, transient time 0 value used
No. of Data Columns : 29     
=============pavan_cla_adder : New Iteration===========
Instance : 1

Inside foo before eval.....
a=0
b=0
c_in=0
sum=0
c_out=0

Inside foo after eval.....
a=0
b=0
c_in=0
sum=0
c_out=0
=============pavan_cla_adder : New Iteration===========
Instance : 1

Inside foo before eval.....
a=0
b=0
c_in=0
sum=0
c_out=0

Inside foo after eval.....
a=0
b=0
c_in=0
sum=0
c_out=0

Initial Transient Solution
--------------------------

Node                                   Voltage
----                                   -------
i0                                           0
i1                                           0
i2                                           0
i3                                           0
i7                                           0
i6                                           0
i5                                           0
i4                                           0
i8                                           0
o0                                           0
o2                                           0
o3                                           0
o4                                           0
o1                                           0
v8#branch                                    0
v4#branch                                    0
v5#branch                                    0
v6#branch                                    0
v7#branch                                    0
v3#branch                                    0
v2#branch                                    0
v1#branch                                    0
v0#branch                                    0
a1#branch_1_0                                0
a1#branch_1_1                                0
a1#branch_1_2                                0
a1#branch_1_3                                0
a1#branch_1_4                                0

=============pavan_cla_adder : New Iteration===========
Instance : 1

Inside foo before eval.....
a=0
b=0
c_in=0
sum=0
c_out=0

Inside foo after eval.....
a=15
b=15
c_in=1
sum=15
c_out=1
=============pavan_cla_adder : New Iteration===========
Instance : 1

Inside foo before eval.....
a=15
b=15
c_in=1
sum=15
c_out=1

Inside foo after eval.....
a=15
b=15
c_in=1
sum=15
c_out=1
=============pavan_cla_adder : New Iteration===========
Instance : 1

Inside foo before eval.....
a=15
b=15
c_in=1
sum=15
c_out=1

Inside foo after eval.....
a=0
b=0
c_in=0
sum=0
c_out=0
=============pavan_cla_adder : New Iteration===========
Instance : 1

Inside foo before eval.....
a=0
b=0
c_in=0
sum=0
c_out=0

Inside foo after eval.....
a=8
b=0
c_in=0
sum=8
c_out=0
=============pavan_cla_adder : New Iteration===========
Instance : 1

Inside foo before eval.....
a=8
b=0
c_in=0
sum=8
c_out=0

Inside foo after eval.....
a=8
b=0
c_in=0
sum=8
c_out=0
=============pavan_cla_adder : New Iteration===========
Instance : 1

Inside foo before eval.....
a=8
b=0
c_in=0
sum=8
c_out=0

Inside foo after eval.....
a=12
b=0
c_in=0
sum=12
c_out=0
=============pavan_cla_adder : New Iteration===========
Instance : 1

Inside foo before eval.....
a=12
b=0
c_in=0
sum=12
c_out=0

Inside foo after eval.....
a=12
b=0
c_in=0
sum=12
c_out=0
=============pavan_cla_adder : New Iteration===========
Instance : 1

Inside foo before eval.....
a=12
b=0
c_in=0
sum=12
c_out=0

Inside foo after eval.....
a=12
b=0
c_in=0
sum=12
c_out=0
=============pavan_cla_adder : New Iteration===========
Instance : 1

Inside foo before eval.....
a=12
b=0
c_in=0
sum=12
c_out=0

Inside foo after eval.....
a=4
b=0
c_in=0
sum=4
c_out=0
=============pavan_cla_adder : New Iteration===========
Instance : 1

Inside foo before eval.....
a=4
b=0
c_in=0
sum=4
c_out=0

Inside foo after eval.....
a=14
b=0
c_in=0
sum=14
c_out=0
=============pavan_cla_adder : New Iteration===========
Instance : 1

Inside foo before eval.....
a=14
b=0
c_in=0
sum=14
c_out=0

Inside foo after eval.....
a=14
b=0
c_in=0
sum=14
c_out=0
=============pavan_cla_adder : New Iteration===========
Instance : 1

Inside foo before eval.....
a=14
b=0
c_in=0
sum=14
c_out=0

Inside foo after eval.....
a=14
b=0
c_in=0
sum=14
c_out=0
=============pavan_cla_adder : New Iteration===========
Instance : 1

Inside foo before eval.....
a=14
b=0
c_in=0
sum=14
c_out=0

Inside foo after eval.....
a=10
b=0
c_in=0
sum=10
c_out=0
=============pavan_cla_adder : New Iteration===========
Instance : 1

Inside foo before eval.....
a=10
b=0
c_in=0
sum=10
c_out=0

Inside foo after eval.....
a=11
b=0
c_in=0
sum=11
c_out=0
=============pavan_cla_adder : New Iteration===========
Instance : 1

Inside foo before eval.....
a=11
b=0
c_in=0
sum=11
c_out=0

Inside foo after eval.....
a=11
b=0
c_in=0
sum=11
c_out=0
=============pavan_cla_adder : New Iteration===========
Instance : 1

Inside foo before eval.....
a=11
b=0
c_in=0
sum=11
c_out=0

Inside foo after eval.....
a=11
b=0
c_in=0
sum=11
c_out=0
=============pavan_cla_adder : New Iteration===========
Instance : 1

Inside foo before eval.....
a=11
b=0
c_in=0
sum=11
c_out=0

Inside foo after eval.....
a=1
b=0
c_in=0
sum=1
c_out=0
=============pavan_cla_adder : New Iteration===========
Instance : 1

Inside foo before eval.....
a=1
b=0
c_in=0
sum=1
c_out=0

Inside foo after eval.....
a=13
b=1
c_in=0
sum=14
c_out=0
=============pavan_cla_adder : New Iteration===========
Instance : 1

Inside foo before eval.....
a=13
b=1
c_in=0
sum=14
c_out=0

Inside foo after eval.....
a=13
b=1
c_in=0
sum=14
c_out=0
=============pavan_cla_adder : New Iteration===========
Instance : 1

Inside foo before eval.....
a=13
b=1
c_in=0
sum=14
c_out=0

Inside foo after eval.....
a=13
b=1
c_in=0
sum=14
c_out=0
=============pavan_cla_adder : New Iteration===========
Instance : 1

Inside foo before eval.....
a=13
b=1
c_in=0
sum=14
c_out=0

Inside foo after eval.....
a=12
b=1
c_in=0
sum=13
c_out=0
=============pavan_cla_adder : New Iteration===========
Instance : 1

Inside foo before eval.....
a=12
b=1
c_in=0
sum=13
c_out=0

Inside foo after eval.....
a=12
b=3
c_in=0
sum=15
c_out=0
=============pavan_cla_adder : New Iteration===========
Instance : 1

Inside foo before eval.....
a=12
b=3
c_in=0
sum=15
c_out=0

Inside foo after eval.....
a=12
b=3
c_in=0
sum=15
c_out=0
=============pavan_cla_adder : New Iteration===========
Instance : 1

Inside foo before eval.....
a=12
b=3
c_in=0
sum=15
c_out=0

Inside foo after eval.....
a=12
b=3
c_in=0
sum=15
c_out=0
=============pavan_cla_adder : New Iteration===========
Instance : 1

Inside foo before eval.....
a=12
b=3
c_in=0
sum=15
c_out=0

Inside foo after eval.....
a=0
b=2
c_in=0
sum=2
c_out=0
=============pavan_cla_adder : New Iteration===========
Instance : 1

Inside foo before eval.....
a=0
b=2
c_in=0
sum=2
c_out=0

Inside foo after eval.....
a=10
b=6
c_in=0
sum=0
c_out=1
=============pavan_cla_adder : New Iteration===========
Instance : 1

Inside foo before eval.....
a=10
b=6
c_in=0
sum=0
c_out=1

Inside foo after eval.....
a=10
b=6
c_in=0
sum=0
c_out=1
=============pavan_cla_adder : New Iteration===========
Instance : 1

Inside foo before eval.....
a=10
b=6
c_in=0
sum=0
c_out=1

Inside foo after eval.....
a=10
b=6
c_in=0
sum=0
c_out=1
=============pavan_cla_adder : New Iteration===========
Instance : 1

Inside foo before eval.....
a=10
b=6
c_in=0
sum=0
c_out=1

Inside foo after eval.....
a=10
b=4
c_in=0
sum=14
c_out=0
=============pavan_cla_adder : New Iteration===========
Instance : 1

Inside foo before eval.....
a=10
b=4
c_in=0
sum=14
c_out=0

Inside foo after eval.....
a=14
b=12
c_in=0
sum=10
c_out=1
=============pavan_cla_adder : New Iteration===========
Instance : 1

Inside foo before eval.....
a=14
b=12
c_in=0
sum=10
c_out=1

Inside foo after eval.....
a=14
b=12
c_in=0
sum=10
c_out=1
=============pavan_cla_adder : New Iteration===========
Instance : 1

Inside foo before eval.....
a=14
b=12
c_in=0
sum=10
c_out=1

Inside foo after eval.....
a=14
b=12
c_in=0
sum=10
c_out=1
=============pavan_cla_adder : New Iteration===========
Instance : 1

Inside foo before eval.....
a=14
b=12
c_in=0
sum=10
c_out=1

Inside foo after eval.....
a=4
b=8
c_in=0
sum=12
c_out=0
=============pavan_cla_adder : New Iteration===========
Instance : 1

Inside foo before eval.....
a=4
b=8
c_in=0
sum=12
c_out=0

Inside foo after eval.....
a=13
b=8
c_in=1
sum=6
c_out=1
=============pavan_cla_adder : New Iteration===========
Instance : 1

Inside foo before eval.....
a=13
b=8
c_in=1
sum=6
c_out=1

Inside foo after eval.....
a=13
b=8
c_in=1
sum=6
c_out=1
=============pavan_cla_adder : New Iteration===========
Instance : 1

Inside foo before eval.....
a=13
b=8
c_in=1
sum=6
c_out=1

Inside foo after eval.....
a=13
b=8
c_in=1
sum=6
c_out=1
=============pavan_cla_adder : New Iteration===========
Instance : 1

Inside foo before eval.....
a=13
b=8
c_in=1
sum=6
c_out=1

Inside foo after eval.....
a=9
b=0
c_in=1
sum=10
c_out=0
=============pavan_cla_adder : New Iteration===========
Instance : 1

Inside foo before eval.....
a=9
b=0
c_in=1
sum=10
c_out=0

Inside foo after eval.....
a=9
b=0
c_in=1
sum=10
c_out=0
=============pavan_cla_adder : New Iteration===========
Instance : 1

Inside foo before eval.....
a=9
b=0
c_in=1
sum=10
c_out=0

Inside foo after eval.....
a=0
b=0
c_in=0
sum=0
c_out=0
=============pavan_cla_adder : New Iteration===========
Instance : 1

Inside foo before eval.....
a=0
b=0
c_in=0
sum=0
c_out=0

Inside foo after eval.....
a=14
b=1
c_in=0
sum=15
c_out=0
=============pavan_cla_adder : New Iteration===========
Instance : 1

Inside foo before eval.....
a=14
b=1
c_in=0
sum=15
c_out=0

Inside foo after eval.....
a=14
b=1
c_in=0
sum=15
c_out=0
=============pavan_cla_adder : New Iteration===========
Instance : 1

Inside foo before eval.....
a=14
b=1
c_in=0
sum=15
c_out=0

Inside foo after eval.....
a=14
b=1
c_in=0
sum=15
c_out=0
=============pavan_cla_adder : New Iteration===========
Instance : 1

Inside foo before eval.....
a=14
b=1
c_in=0
sum=15
c_out=0

Inside foo after eval.....
a=0
b=0
c_in=0
sum=0
c_out=0
=============pavan_cla_adder : New Iteration===========
Instance : 1

Inside foo before eval.....
a=0
b=0
c_in=0
sum=0
c_out=0

Inside foo after eval.....
a=8
b=2
c_in=0
sum=10
c_out=0
=============pavan_cla_adder : New Iteration===========
Instance : 1

Inside foo before eval.....
a=8
b=2
c_in=0
sum=10
c_out=0

Inside foo after eval.....
a=8
b=2
c_in=0
sum=10
c_out=0
=============pavan_cla_adder : New Iteration===========
Instance : 1

Inside foo before eval.....
a=8
b=2
c_in=0
sum=10
c_out=0

Inside foo after eval.....
a=13
b=2
c_in=0
sum=15
c_out=0
=============pavan_cla_adder : New Iteration===========
Instance : 1

Inside foo before eval.....
a=13
b=2
c_in=0
sum=15
c_out=0

Inside foo after eval.....
a=13
b=2
c_in=0
sum=15
c_out=0
=============pavan_cla_adder : New Iteration===========
Instance : 1

Inside foo before eval.....
a=13
b=2
c_in=0
sum=15
c_out=0

Inside foo after eval.....
a=13
b=2
c_in=0
sum=15
c_out=0
=============pavan_cla_adder : New Iteration===========
Instance : 1

Inside foo before eval.....
a=13
b=2
c_in=0
sum=15
c_out=0

Inside foo after eval.....
a=5
b=0
c_in=0
sum=5
c_out=0
=============pavan_cla_adder : New Iteration===========
Instance : 1

Inside foo before eval.....
a=5
b=0
c_in=0
sum=5
c_out=0

Inside foo after eval.....
a=15
b=4
c_in=0
sum=3
c_out=1
=============pavan_cla_adder : New Iteration===========
Instance : 1

Inside foo before eval.....
a=15
b=4
c_in=0
sum=3
c_out=1

Inside foo after eval.....
a=15
b=4
c_in=0
sum=3
c_out=1
=============pavan_cla_adder : New Iteration===========
Instance : 1

Inside foo before eval.....
a=15
b=4
c_in=0
sum=3
c_out=1

Inside foo after eval.....
a=15
b=4
c_in=0
sum=3
c_out=1
=============pavan_cla_adder : New Iteration===========
Instance : 1

Inside foo before eval.....
a=15
b=4
c_in=0
sum=3
c_out=1

Inside foo after eval.....
a=10
b=4
c_in=0
sum=14
c_out=0
=============pavan_cla_adder : New Iteration===========
Instance : 1

Inside foo before eval.....
a=10
b=4
c_in=0
sum=14
c_out=0

Inside foo after eval.....
a=10
b=4
c_in=0
sum=14
c_out=0
=============pavan_cla_adder : New Iteration===========
Instance : 1

Inside foo before eval.....
a=10
b=4
c_in=0
sum=14
c_out=0

Inside foo after eval.....
a=0
b=0
c_in=0
sum=0
c_out=0
=============pavan_cla_adder : New Iteration===========
Instance : 1

Inside foo before eval.....
a=0
b=0
c_in=0
sum=0
c_out=0

Inside foo after eval.....
a=12
b=9
c_in=0
sum=5
c_out=1
=============pavan_cla_adder : New Iteration===========
Instance : 1

Inside foo before eval.....
a=12
b=9
c_in=0
sum=5
c_out=1

Inside foo after eval.....
a=12
b=9
c_in=0
sum=5
c_out=1
=============pavan_cla_adder : New Iteration===========
Instance : 1

Inside foo before eval.....
a=12
b=9
c_in=0
sum=5
c_out=1

Inside foo after eval.....
a=12
b=9
c_in=0
sum=5
c_out=1
=============pavan_cla_adder : New Iteration===========
Instance : 1

Inside foo before eval.....
a=12
b=9
c_in=0
sum=5
c_out=1

Inside foo after eval.....
a=0
b=0
c_in=0
sum=0
c_out=0

No. of Data Rows : 1280

Total analysis time (seconds) = 0.029711

Total CPU time (seconds) = 0.126 

Total DRAM available = 257855.305 MB.
DRAM currently available = 242212.199 MB.
Maximum ngspice program size =   89.504 MB.
Current ngspice program size =   11.875 MB.

Shared ngspice pages =    9.289 MB.
Text (code) pages =    6.285 MB.
Stack = 0 bytes.
Library pages =    3.129 MB.

